data_image0
_cell_length_a       25.2225
_cell_length_b       25.2225
_cell_length_c       23.567
_cell_angle_alpha    90
_cell_angle_beta     90
_cell_angle_gamma    90

_symmetry_space_group_name_H-M    "P 1"
_symmetry_int_tables_number       1

loop_
  _symmetry_equiv_pos_as_xyz
  'x, y, z'

loop_
  _atom_site_label
  _atom_site_occupancy
  _atom_site_fract_x
  _atom_site_fract_y
  _atom_site_fract_z
  _atom_site_thermal_displace_type
  _atom_site_B_iso_or_equiv
  _atom_site_type_symbol
  C1       1.0000 0.05000  0.00000  0.42432  Biso   1.000  C
  C2       1.0000 0.15000  0.00000  0.42432  Biso   1.000  C
  C3       1.0000 0.25000  0.00000  0.42432  Biso   1.000  C
  C4       1.0000 0.35000  0.00000  0.42432  Biso   1.000  C
  C5       1.0000 0.45000  0.00000  0.42432  Biso   1.000  C
  C6       1.0000 0.55000  0.00000  0.42432  Biso   1.000  C
  C7       1.0000 0.65000  0.00000  0.42432  Biso   1.000  C
  C8       1.0000 0.75000  0.00000  0.42432  Biso   1.000  C
  C9       1.0000 0.85000  0.00000  0.42432  Biso   1.000  C
  C10      1.0000 0.95000  0.00000  0.42432  Biso   1.000  C
  C11      1.0000 0.05000  0.10000  0.42432  Biso   1.000  C
  C12      1.0000 0.15000  0.10000  0.42432  Biso   1.000  C
  C13      1.0000 0.25000  0.10000  0.42432  Biso   1.000  C
  C14      1.0000 0.35000  0.10000  0.42432  Biso   1.000  C
  C15      1.0000 0.45000  0.10000  0.42432  Biso   1.000  C
  C16      1.0000 0.55000  0.10000  0.42432  Biso   1.000  C
  C17      1.0000 0.65000  0.10000  0.42432  Biso   1.000  C
  C18      1.0000 0.75000  0.10000  0.42432  Biso   1.000  C
  C19      1.0000 0.85000  0.10000  0.42432  Biso   1.000  C
  C20      1.0000 0.95000  0.10000  0.42432  Biso   1.000  C
  C21      1.0000 0.05000  0.20000  0.42432  Biso   1.000  C
  C22      1.0000 0.15000  0.20000  0.42432  Biso   1.000  C
  C23      1.0000 0.25000  0.20000  0.42432  Biso   1.000  C
  C24      1.0000 0.35000  0.20000  0.42432  Biso   1.000  C
  C25      1.0000 0.45000  0.20000  0.42432  Biso   1.000  C
  C26      1.0000 0.55000  0.20000  0.42432  Biso   1.000  C
  C27      1.0000 0.65000  0.20000  0.42432  Biso   1.000  C
  C28      1.0000 0.75000  0.20000  0.42432  Biso   1.000  C
  C29      1.0000 0.85000  0.20000  0.42432  Biso   1.000  C
  C30      1.0000 0.95000  0.20000  0.42432  Biso   1.000  C
  C31      1.0000 0.05000  0.30000  0.42432  Biso   1.000  C
  C32      1.0000 0.15000  0.30000  0.42432  Biso   1.000  C
  C33      1.0000 0.25000  0.30000  0.42432  Biso   1.000  C
  C34      1.0000 0.35000  0.30000  0.42432  Biso   1.000  C
  C35      1.0000 0.45000  0.30000  0.42432  Biso   1.000  C
  C36      1.0000 0.55000  0.30000  0.42432  Biso   1.000  C
  C37      1.0000 0.65000  0.30000  0.42432  Biso   1.000  C
  C38      1.0000 0.75000  0.30000  0.42432  Biso   1.000  C
  C39      1.0000 0.85000  0.30000  0.42432  Biso   1.000  C
  C40      1.0000 0.95000  0.30000  0.42432  Biso   1.000  C
  C41      1.0000 0.05000  0.40000  0.42432  Biso   1.000  C
  C42      1.0000 0.15000  0.40000  0.42432  Biso   1.000  C
  C43      1.0000 0.25000  0.40000  0.42432  Biso   1.000  C
  C44      1.0000 0.35000  0.40000  0.42432  Biso   1.000  C
  C45      1.0000 0.45000  0.40000  0.42432  Biso   1.000  C
  C46      1.0000 0.55000  0.40000  0.42432  Biso   1.000  C
  C47      1.0000 0.65000  0.40000  0.42432  Biso   1.000  C
  C48      1.0000 0.75000  0.40000  0.42432  Biso   1.000  C
  C49      1.0000 0.85000  0.40000  0.42432  Biso   1.000  C
  C50      1.0000 0.95000  0.40000  0.42432  Biso   1.000  C
  C51      1.0000 0.05000  0.50000  0.42432  Biso   1.000  C
  C52      1.0000 0.15000  0.50000  0.42432  Biso   1.000  C
  C53      1.0000 0.25000  0.50000  0.42432  Biso   1.000  C
  C54      1.0000 0.35000  0.50000  0.42432  Biso   1.000  C
  C55      1.0000 0.45000  0.50000  0.42432  Biso   1.000  C
  C56      1.0000 0.55000  0.50000  0.42432  Biso   1.000  C
  C57      1.0000 0.65000  0.50000  0.42432  Biso   1.000  C
  C58      1.0000 0.75000  0.50000  0.42432  Biso   1.000  C
  C59      1.0000 0.85000  0.50000  0.42432  Biso   1.000  C
  C60      1.0000 0.95000  0.50000  0.42432  Biso   1.000  C
  C61      1.0000 0.05000  0.60000  0.42432  Biso   1.000  C
  C62      1.0000 0.15000  0.60000  0.42432  Biso   1.000  C
  C63      1.0000 0.25000  0.60000  0.42432  Biso   1.000  C
  C64      1.0000 0.35000  0.60000  0.42432  Biso   1.000  C
  C65      1.0000 0.45000  0.60000  0.42432  Biso   1.000  C
  C66      1.0000 0.55000  0.60000  0.42432  Biso   1.000  C
  C67      1.0000 0.65000  0.60000  0.42432  Biso   1.000  C
  C68      1.0000 0.75000  0.60000  0.42432  Biso   1.000  C
  C69      1.0000 0.85000  0.60000  0.42432  Biso   1.000  C
  C70      1.0000 0.95000  0.60000  0.42432  Biso   1.000  C
  C71      1.0000 0.05000  0.70000  0.42432  Biso   1.000  C
  C72      1.0000 0.15000  0.70000  0.42432  Biso   1.000  C
  C73      1.0000 0.25000  0.70000  0.42432  Biso   1.000  C
  C74      1.0000 0.35000  0.70000  0.42432  Biso   1.000  C
  C75      1.0000 0.45000  0.70000  0.42432  Biso   1.000  C
  C76      1.0000 0.55000  0.70000  0.42432  Biso   1.000  C
  C77      1.0000 0.65000  0.70000  0.42432  Biso   1.000  C
  C78      1.0000 0.75000  0.70000  0.42432  Biso   1.000  C
  C79      1.0000 0.85000  0.70000  0.42432  Biso   1.000  C
  C80      1.0000 0.95000  0.70000  0.42432  Biso   1.000  C
  C81      1.0000 0.05000  0.80000  0.42432  Biso   1.000  C
  C82      1.0000 0.15000  0.80000  0.42432  Biso   1.000  C
  C83      1.0000 0.25000  0.80000  0.42432  Biso   1.000  C
  C84      1.0000 0.35000  0.80000  0.42432  Biso   1.000  C
  C85      1.0000 0.45000  0.80000  0.42432  Biso   1.000  C
  C86      1.0000 0.55000  0.80000  0.42432  Biso   1.000  C
  C87      1.0000 0.65000  0.80000  0.42432  Biso   1.000  C
  C88      1.0000 0.75000  0.80000  0.42432  Biso   1.000  C
  C89      1.0000 0.85000  0.80000  0.42432  Biso   1.000  C
  C90      1.0000 0.95000  0.80000  0.42432  Biso   1.000  C
  C91      1.0000 0.05000  0.90000  0.42432  Biso   1.000  C
  C92      1.0000 0.15000  0.90000  0.42432  Biso   1.000  C
  C93      1.0000 0.25000  0.90000  0.42432  Biso   1.000  C
  C94      1.0000 0.35000  0.90000  0.42432  Biso   1.000  C
  C95      1.0000 0.45000  0.90000  0.42432  Biso   1.000  C
  C96      1.0000 0.55000  0.90000  0.42432  Biso   1.000  C
  C97      1.0000 0.65000  0.90000  0.42432  Biso   1.000  C
  C98      1.0000 0.75000  0.90000  0.42432  Biso   1.000  C
  C99      1.0000 0.85000  0.90000  0.42432  Biso   1.000  C
  C100     1.0000 0.95000  0.90000  0.42432  Biso   1.000  C
  C101     1.0000 0.05000  0.05000  0.46216  Biso   1.000  C
  C102     1.0000 0.15000  0.05000  0.46216  Biso   1.000  C
  C103     1.0000 0.25000  0.05000  0.46216  Biso   1.000  C
  C104     1.0000 0.35000  0.05000  0.46216  Biso   1.000  C
  C105     1.0000 0.45000  0.05000  0.46216  Biso   1.000  C
  C106     1.0000 0.55000  0.05000  0.46216  Biso   1.000  C
  C107     1.0000 0.65000  0.05000  0.46216  Biso   1.000  C
  C108     1.0000 0.75000  0.05000  0.46216  Biso   1.000  C
  C109     1.0000 0.85000  0.05000  0.46216  Biso   1.000  C
  C110     1.0000 0.95000  0.05000  0.46216  Biso   1.000  C
  C111     1.0000 0.05000  0.15000  0.46216  Biso   1.000  C
  C112     1.0000 0.15000  0.15000  0.46216  Biso   1.000  C
  C113     1.0000 0.25000  0.15000  0.46216  Biso   1.000  C
  C114     1.0000 0.35000  0.15000  0.46216  Biso   1.000  C
  C115     1.0000 0.45000  0.15000  0.46216  Biso   1.000  C
  C116     1.0000 0.55000  0.15000  0.46216  Biso   1.000  C
  C117     1.0000 0.65000  0.15000  0.46216  Biso   1.000  C
  C118     1.0000 0.75000  0.15000  0.46216  Biso   1.000  C
  C119     1.0000 0.85000  0.15000  0.46216  Biso   1.000  C
  C120     1.0000 0.95000  0.15000  0.46216  Biso   1.000  C
  C121     1.0000 0.05000  0.25000  0.46216  Biso   1.000  C
  C122     1.0000 0.15000  0.25000  0.46216  Biso   1.000  C
  C123     1.0000 0.25000  0.25000  0.46216  Biso   1.000  C
  C124     1.0000 0.35000  0.25000  0.46216  Biso   1.000  C
  C125     1.0000 0.45000  0.25000  0.46216  Biso   1.000  C
  C126     1.0000 0.55000  0.25000  0.46216  Biso   1.000  C
  C127     1.0000 0.65000  0.25000  0.46216  Biso   1.000  C
  C128     1.0000 0.75000  0.25000  0.46216  Biso   1.000  C
  C129     1.0000 0.85000  0.25000  0.46216  Biso   1.000  C
  C130     1.0000 0.95000  0.25000  0.46216  Biso   1.000  C
  C131     1.0000 0.05000  0.35000  0.46216  Biso   1.000  C
  C132     1.0000 0.15000  0.35000  0.46216  Biso   1.000  C
  C133     1.0000 0.25000  0.35000  0.46216  Biso   1.000  C
  C134     1.0000 0.35000  0.35000  0.46216  Biso   1.000  C
  C135     1.0000 0.45000  0.35000  0.46216  Biso   1.000  C
  C136     1.0000 0.55000  0.35000  0.46216  Biso   1.000  C
  C137     1.0000 0.65000  0.35000  0.46216  Biso   1.000  C
  C138     1.0000 0.75000  0.35000  0.46216  Biso   1.000  C
  C139     1.0000 0.85000  0.35000  0.46216  Biso   1.000  C
  C140     1.0000 0.95000  0.35000  0.46216  Biso   1.000  C
  C141     1.0000 0.05000  0.45000  0.46216  Biso   1.000  C
  C142     1.0000 0.15000  0.45000  0.46216  Biso   1.000  C
  C143     1.0000 0.25000  0.45000  0.46216  Biso   1.000  C
  C144     1.0000 0.35000  0.45000  0.46216  Biso   1.000  C
  C145     1.0000 0.45000  0.45000  0.46216  Biso   1.000  C
  C146     1.0000 0.55000  0.45000  0.46216  Biso   1.000  C
  C147     1.0000 0.65000  0.45000  0.46216  Biso   1.000  C
  C148     1.0000 0.75000  0.45000  0.46216  Biso   1.000  C
  C149     1.0000 0.85000  0.45000  0.46216  Biso   1.000  C
  C150     1.0000 0.95000  0.45000  0.46216  Biso   1.000  C
  C151     1.0000 0.05000  0.55000  0.46216  Biso   1.000  C
  C152     1.0000 0.15000  0.55000  0.46216  Biso   1.000  C
  C153     1.0000 0.25000  0.55000  0.46216  Biso   1.000  C
  C154     1.0000 0.35000  0.55000  0.46216  Biso   1.000  C
  C155     1.0000 0.45000  0.55000  0.46216  Biso   1.000  C
  C156     1.0000 0.55000  0.55000  0.46216  Biso   1.000  C
  C157     1.0000 0.65000  0.55000  0.46216  Biso   1.000  C
  C158     1.0000 0.75000  0.55000  0.46216  Biso   1.000  C
  C159     1.0000 0.85000  0.55000  0.46216  Biso   1.000  C
  C160     1.0000 0.95000  0.55000  0.46216  Biso   1.000  C
  C161     1.0000 0.05000  0.65000  0.46216  Biso   1.000  C
  C162     1.0000 0.15000  0.65000  0.46216  Biso   1.000  C
  C163     1.0000 0.25000  0.65000  0.46216  Biso   1.000  C
  C164     1.0000 0.35000  0.65000  0.46216  Biso   1.000  C
  C165     1.0000 0.45000  0.65000  0.46216  Biso   1.000  C
  C166     1.0000 0.55000  0.65000  0.46216  Biso   1.000  C
  C167     1.0000 0.65000  0.65000  0.46216  Biso   1.000  C
  C168     1.0000 0.75000  0.65000  0.46216  Biso   1.000  C
  C169     1.0000 0.85000  0.65000  0.46216  Biso   1.000  C
  C170     1.0000 0.95000  0.65000  0.46216  Biso   1.000  C
  C171     1.0000 0.05000  0.75000  0.46216  Biso   1.000  C
  C172     1.0000 0.15000  0.75000  0.46216  Biso   1.000  C
  C173     1.0000 0.25000  0.75000  0.46216  Biso   1.000  C
  C174     1.0000 0.35000  0.75000  0.46216  Biso   1.000  C
  C175     1.0000 0.45000  0.75000  0.46216  Biso   1.000  C
  C176     1.0000 0.55000  0.75000  0.46216  Biso   1.000  C
  C177     1.0000 0.65000  0.75000  0.46216  Biso   1.000  C
  C178     1.0000 0.75000  0.75000  0.46216  Biso   1.000  C
  C179     1.0000 0.85000  0.75000  0.46216  Biso   1.000  C
  C180     1.0000 0.95000  0.75000  0.46216  Biso   1.000  C
  C181     1.0000 0.05000  0.85000  0.46216  Biso   1.000  C
  C182     1.0000 0.15000  0.85000  0.46216  Biso   1.000  C
  C183     1.0000 0.25000  0.85000  0.46216  Biso   1.000  C
  C184     1.0000 0.35000  0.85000  0.46216  Biso   1.000  C
  C185     1.0000 0.45000  0.85000  0.46216  Biso   1.000  C
  C186     1.0000 0.55000  0.85000  0.46216  Biso   1.000  C
  C187     1.0000 0.65000  0.85000  0.46216  Biso   1.000  C
  C188     1.0000 0.75000  0.85000  0.46216  Biso   1.000  C
  C189     1.0000 0.85000  0.85000  0.46216  Biso   1.000  C
  C190     1.0000 0.95000  0.85000  0.46216  Biso   1.000  C
  C191     1.0000 0.05000  0.95000  0.46216  Biso   1.000  C
  C192     1.0000 0.15000  0.95000  0.46216  Biso   1.000  C
  C193     1.0000 0.25000  0.95000  0.46216  Biso   1.000  C
  C194     1.0000 0.35000  0.95000  0.46216  Biso   1.000  C
  C195     1.0000 0.45000  0.95000  0.46216  Biso   1.000  C
  C196     1.0000 0.55000  0.95000  0.46216  Biso   1.000  C
  C197     1.0000 0.65000  0.95000  0.46216  Biso   1.000  C
  C198     1.0000 0.75000  0.95000  0.46216  Biso   1.000  C
  C199     1.0000 0.85000  0.95000  0.46216  Biso   1.000  C
  C200     1.0000 0.95000  0.95000  0.46216  Biso   1.000  C
  C201     1.0000 0.00000  0.05000  0.50000  Biso   1.000  C
  C202     1.0000 0.10000  0.05000  0.50000  Biso   1.000  C
  C203     1.0000 0.20000  0.05000  0.50000  Biso   1.000  C
  C204     1.0000 0.30000  0.05000  0.50000  Biso   1.000  C
  C205     1.0000 0.40000  0.05000  0.50000  Biso   1.000  C
  C206     1.0000 0.50000  0.05000  0.50000  Biso   1.000  C
  C207     1.0000 0.60000  0.05000  0.50000  Biso   1.000  C
  C208     1.0000 0.70000  0.05000  0.50000  Biso   1.000  C
  C209     1.0000 0.80000  0.05000  0.50000  Biso   1.000  C
  C210     1.0000 0.90000  0.05000  0.50000  Biso   1.000  C
  C211     1.0000 0.00000  0.15000  0.50000  Biso   1.000  C
  C212     1.0000 0.10000  0.15000  0.50000  Biso   1.000  C
  C213     1.0000 0.20000  0.15000  0.50000  Biso   1.000  C
  C214     1.0000 0.30000  0.15000  0.50000  Biso   1.000  C
  C215     1.0000 0.40000  0.15000  0.50000  Biso   1.000  C
  C216     1.0000 0.50000  0.15000  0.50000  Biso   1.000  C
  C217     1.0000 0.60000  0.15000  0.50000  Biso   1.000  C
  C218     1.0000 0.70000  0.15000  0.50000  Biso   1.000  C
  C219     1.0000 0.80000  0.15000  0.50000  Biso   1.000  C
  C220     1.0000 0.90000  0.15000  0.50000  Biso   1.000  C
  C221     1.0000 0.00000  0.25000  0.50000  Biso   1.000  C
  C222     1.0000 0.10000  0.25000  0.50000  Biso   1.000  C
  C223     1.0000 0.20000  0.25000  0.50000  Biso   1.000  C
  C224     1.0000 0.30000  0.25000  0.50000  Biso   1.000  C
  C225     1.0000 0.40000  0.25000  0.50000  Biso   1.000  C
  C226     1.0000 0.50000  0.25000  0.50000  Biso   1.000  C
  C227     1.0000 0.60000  0.25000  0.50000  Biso   1.000  C
  C228     1.0000 0.70000  0.25000  0.50000  Biso   1.000  C
  C229     1.0000 0.80000  0.25000  0.50000  Biso   1.000  C
  C230     1.0000 0.90000  0.25000  0.50000  Biso   1.000  C
  C231     1.0000 0.00000  0.35000  0.50000  Biso   1.000  C
  C232     1.0000 0.10000  0.35000  0.50000  Biso   1.000  C
  C233     1.0000 0.20000  0.35000  0.50000  Biso   1.000  C
  C234     1.0000 0.30000  0.35000  0.50000  Biso   1.000  C
  C235     1.0000 0.40000  0.35000  0.50000  Biso   1.000  C
  C236     1.0000 0.50000  0.35000  0.50000  Biso   1.000  C
  C237     1.0000 0.60000  0.35000  0.50000  Biso   1.000  C
  C238     1.0000 0.70000  0.35000  0.50000  Biso   1.000  C
  C239     1.0000 0.80000  0.35000  0.50000  Biso   1.000  C
  C240     1.0000 0.90000  0.35000  0.50000  Biso   1.000  C
  C241     1.0000 0.00000  0.45000  0.50000  Biso   1.000  C
  C242     1.0000 0.10000  0.45000  0.50000  Biso   1.000  C
  C243     1.0000 0.20000  0.45000  0.50000  Biso   1.000  C
  C244     1.0000 0.30000  0.45000  0.50000  Biso   1.000  C
  C245     1.0000 0.40000  0.45000  0.50000  Biso   1.000  C
  C246     1.0000 0.50000  0.45000  0.50000  Biso   1.000  C
  C247     1.0000 0.60000  0.45000  0.50000  Biso   1.000  C
  C248     1.0000 0.70000  0.45000  0.50000  Biso   1.000  C
  C249     1.0000 0.80000  0.45000  0.50000  Biso   1.000  C
  C250     1.0000 0.90000  0.45000  0.50000  Biso   1.000  C
  C251     1.0000 0.00000  0.55000  0.50000  Biso   1.000  C
  C252     1.0000 0.10000  0.55000  0.50000  Biso   1.000  C
  C253     1.0000 0.20000  0.55000  0.50000  Biso   1.000  C
  C254     1.0000 0.30000  0.55000  0.50000  Biso   1.000  C
  C255     1.0000 0.40000  0.55000  0.50000  Biso   1.000  C
  C256     1.0000 0.50000  0.55000  0.50000  Biso   1.000  C
  C257     1.0000 0.60000  0.55000  0.50000  Biso   1.000  C
  C258     1.0000 0.70000  0.55000  0.50000  Biso   1.000  C
  C259     1.0000 0.80000  0.55000  0.50000  Biso   1.000  C
  C260     1.0000 0.90000  0.55000  0.50000  Biso   1.000  C
  C261     1.0000 0.00000  0.65000  0.50000  Biso   1.000  C
  C262     1.0000 0.10000  0.65000  0.50000  Biso   1.000  C
  C263     1.0000 0.20000  0.65000  0.50000  Biso   1.000  C
  C264     1.0000 0.30000  0.65000  0.50000  Biso   1.000  C
  C265     1.0000 0.40000  0.65000  0.50000  Biso   1.000  C
  C266     1.0000 0.50000  0.65000  0.50000  Biso   1.000  C
  C267     1.0000 0.60000  0.65000  0.50000  Biso   1.000  C
  C268     1.0000 0.70000  0.65000  0.50000  Biso   1.000  C
  C269     1.0000 0.80000  0.65000  0.50000  Biso   1.000  C
  C270     1.0000 0.90000  0.65000  0.50000  Biso   1.000  C
  C271     1.0000 0.00000  0.75000  0.50000  Biso   1.000  C
  C272     1.0000 0.10000  0.75000  0.50000  Biso   1.000  C
  C273     1.0000 0.20000  0.75000  0.50000  Biso   1.000  C
  C274     1.0000 0.30000  0.75000  0.50000  Biso   1.000  C
  C275     1.0000 0.40000  0.75000  0.50000  Biso   1.000  C
  C276     1.0000 0.50000  0.75000  0.50000  Biso   1.000  C
  C277     1.0000 0.60000  0.75000  0.50000  Biso   1.000  C
  C278     1.0000 0.70000  0.75000  0.50000  Biso   1.000  C
  C279     1.0000 0.80000  0.75000  0.50000  Biso   1.000  C
  C280     1.0000 0.90000  0.75000  0.50000  Biso   1.000  C
  C281     1.0000 0.00000  0.85000  0.50000  Biso   1.000  C
  C282     1.0000 0.10000  0.85000  0.50000  Biso   1.000  C
  C283     1.0000 0.20000  0.85000  0.50000  Biso   1.000  C
  C284     1.0000 0.30000  0.85000  0.50000  Biso   1.000  C
  C285     1.0000 0.40000  0.85000  0.50000  Biso   1.000  C
  C286     1.0000 0.50000  0.85000  0.50000  Biso   1.000  C
  C287     1.0000 0.60000  0.85000  0.50000  Biso   1.000  C
  C288     1.0000 0.70000  0.85000  0.50000  Biso   1.000  C
  C289     1.0000 0.80000  0.85000  0.50000  Biso   1.000  C
  C290     1.0000 0.90000  0.85000  0.50000  Biso   1.000  C
  C291     1.0000 0.00000  0.95000  0.50000  Biso   1.000  C
  C292     1.0000 0.10000  0.95000  0.50000  Biso   1.000  C
  C293     1.0000 0.20000  0.95000  0.50000  Biso   1.000  C
  C294     1.0000 0.30000  0.95000  0.50000  Biso   1.000  C
  C295     1.0000 0.40000  0.95000  0.50000  Biso   1.000  C
  C296     1.0000 0.50000  0.95000  0.50000  Biso   1.000  C
  C297     1.0000 0.60000  0.95000  0.50000  Biso   1.000  C
  C298     1.0000 0.70000  0.95000  0.50000  Biso   1.000  C
  C299     1.0000 0.80000  0.95000  0.50000  Biso   1.000  C
  C300     1.0000 0.90000  0.95000  0.50000  Biso   1.000  C
  C301     1.0000 0.00000  0.00000  0.53784  Biso   1.000  C
  C302     1.0000 0.10000  0.00000  0.53784  Biso   1.000  C
  C303     1.0000 0.20000  0.00000  0.53784  Biso   1.000  C
  C304     1.0000 0.30000  0.00000  0.53784  Biso   1.000  C
  C305     1.0000 0.40000  0.00000  0.53784  Biso   1.000  C
  C306     1.0000 0.50000  0.00000  0.53784  Biso   1.000  C
  C307     1.0000 0.60000  0.00000  0.53784  Biso   1.000  C
  C308     1.0000 0.70000  0.00000  0.53784  Biso   1.000  C
  C309     1.0000 0.80000  0.00000  0.53784  Biso   1.000  C
  C310     1.0000 0.90000  0.00000  0.53784  Biso   1.000  C
  C311     1.0000 0.00000  0.10000  0.53784  Biso   1.000  C
  C312     1.0000 0.10000  0.10000  0.53784  Biso   1.000  C
  C313     1.0000 0.20000  0.10000  0.53784  Biso   1.000  C
  C314     1.0000 0.30000  0.10000  0.53784  Biso   1.000  C
  C315     1.0000 0.40000  0.10000  0.53784  Biso   1.000  C
  C316     1.0000 0.50000  0.10000  0.53784  Biso   1.000  C
  C317     1.0000 0.60000  0.10000  0.53784  Biso   1.000  C
  C318     1.0000 0.70000  0.10000  0.53784  Biso   1.000  C
  C319     1.0000 0.80000  0.10000  0.53784  Biso   1.000  C
  C320     1.0000 0.90000  0.10000  0.53784  Biso   1.000  C
  C321     1.0000 0.00000  0.20000  0.53784  Biso   1.000  C
  C322     1.0000 0.10000  0.20000  0.53784  Biso   1.000  C
  C323     1.0000 0.20000  0.20000  0.53784  Biso   1.000  C
  C324     1.0000 0.30000  0.20000  0.53784  Biso   1.000  C
  C325     1.0000 0.40000  0.20000  0.53784  Biso   1.000  C
  C326     1.0000 0.50000  0.20000  0.53784  Biso   1.000  C
  C327     1.0000 0.60000  0.20000  0.53784  Biso   1.000  C
  C328     1.0000 0.70000  0.20000  0.53784  Biso   1.000  C
  C329     1.0000 0.80000  0.20000  0.53784  Biso   1.000  C
  C330     1.0000 0.90000  0.20000  0.53784  Biso   1.000  C
  C331     1.0000 0.00000  0.30000  0.53784  Biso   1.000  C
  C332     1.0000 0.10000  0.30000  0.53784  Biso   1.000  C
  C333     1.0000 0.20000  0.30000  0.53784  Biso   1.000  C
  C334     1.0000 0.30000  0.30000  0.53784  Biso   1.000  C
  C335     1.0000 0.40000  0.30000  0.53784  Biso   1.000  C
  C336     1.0000 0.50000  0.30000  0.53784  Biso   1.000  C
  C337     1.0000 0.60000  0.30000  0.53784  Biso   1.000  C
  C338     1.0000 0.70000  0.30000  0.53784  Biso   1.000  C
  C339     1.0000 0.80000  0.30000  0.53784  Biso   1.000  C
  C340     1.0000 0.90000  0.30000  0.53784  Biso   1.000  C
  C341     1.0000 0.00000  0.40000  0.53784  Biso   1.000  C
  C342     1.0000 0.10000  0.40000  0.53784  Biso   1.000  C
  C343     1.0000 0.20000  0.40000  0.53784  Biso   1.000  C
  C344     1.0000 0.30000  0.40000  0.53784  Biso   1.000  C
  C345     1.0000 0.40000  0.40000  0.53784  Biso   1.000  C
  C346     1.0000 0.50000  0.40000  0.53784  Biso   1.000  C
  C347     1.0000 0.60000  0.40000  0.53784  Biso   1.000  C
  C348     1.0000 0.70000  0.40000  0.53784  Biso   1.000  C
  C349     1.0000 0.80000  0.40000  0.53784  Biso   1.000  C
  C350     1.0000 0.90000  0.40000  0.53784  Biso   1.000  C
  C351     1.0000 0.00000  0.50000  0.53784  Biso   1.000  C
  C352     1.0000 0.10000  0.50000  0.53784  Biso   1.000  C
  C353     1.0000 0.20000  0.50000  0.53784  Biso   1.000  C
  C354     1.0000 0.30000  0.50000  0.53784  Biso   1.000  C
  C355     1.0000 0.40000  0.50000  0.53784  Biso   1.000  C
  C356     1.0000 0.50000  0.50000  0.53784  Biso   1.000  C
  C357     1.0000 0.60000  0.50000  0.53784  Biso   1.000  C
  C358     1.0000 0.70000  0.50000  0.53784  Biso   1.000  C
  C359     1.0000 0.80000  0.50000  0.53784  Biso   1.000  C
  C360     1.0000 0.90000  0.50000  0.53784  Biso   1.000  C
  C361     1.0000 0.00000  0.60000  0.53784  Biso   1.000  C
  C362     1.0000 0.10000  0.60000  0.53784  Biso   1.000  C
  C363     1.0000 0.20000  0.60000  0.53784  Biso   1.000  C
  C364     1.0000 0.30000  0.60000  0.53784  Biso   1.000  C
  C365     1.0000 0.40000  0.60000  0.53784  Biso   1.000  C
  C366     1.0000 0.50000  0.60000  0.53784  Biso   1.000  C
  C367     1.0000 0.60000  0.60000  0.53784  Biso   1.000  C
  C368     1.0000 0.70000  0.60000  0.53784  Biso   1.000  C
  C369     1.0000 0.80000  0.60000  0.53784  Biso   1.000  C
  C370     1.0000 0.90000  0.60000  0.53784  Biso   1.000  C
  C371     1.0000 0.00000  0.70000  0.53784  Biso   1.000  C
  C372     1.0000 0.10000  0.70000  0.53784  Biso   1.000  C
  C373     1.0000 0.20000  0.70000  0.53784  Biso   1.000  C
  C374     1.0000 0.30000  0.70000  0.53784  Biso   1.000  C
  C375     1.0000 0.40000  0.70000  0.53784  Biso   1.000  C
  C376     1.0000 0.50000  0.70000  0.53784  Biso   1.000  C
  C377     1.0000 0.60000  0.70000  0.53784  Biso   1.000  C
  C378     1.0000 0.70000  0.70000  0.53784  Biso   1.000  C
  C379     1.0000 0.80000  0.70000  0.53784  Biso   1.000  C
  C380     1.0000 0.90000  0.70000  0.53784  Biso   1.000  C
  C381     1.0000 0.00000  0.80000  0.53784  Biso   1.000  C
  C382     1.0000 0.10000  0.80000  0.53784  Biso   1.000  C
  C383     1.0000 0.20000  0.80000  0.53784  Biso   1.000  C
  C384     1.0000 0.30000  0.80000  0.53784  Biso   1.000  C
  C385     1.0000 0.40000  0.80000  0.53784  Biso   1.000  C
  C386     1.0000 0.50000  0.80000  0.53784  Biso   1.000  C
  C387     1.0000 0.60000  0.80000  0.53784  Biso   1.000  C
  C388     1.0000 0.70000  0.80000  0.53784  Biso   1.000  C
  C389     1.0000 0.80000  0.80000  0.53784  Biso   1.000  C
  C390     1.0000 0.90000  0.80000  0.53784  Biso   1.000  C
  C391     1.0000 0.00000  0.90000  0.53784  Biso   1.000  C
  C392     1.0000 0.10000  0.90000  0.53784  Biso   1.000  C
  C393     1.0000 0.20000  0.90000  0.53784  Biso   1.000  C
  C394     1.0000 0.30000  0.90000  0.53784  Biso   1.000  C
  C395     1.0000 0.40000  0.90000  0.53784  Biso   1.000  C
  C396     1.0000 0.50000  0.90000  0.53784  Biso   1.000  C
  C397     1.0000 0.60000  0.90000  0.53784  Biso   1.000  C
  C398     1.0000 0.70000  0.90000  0.53784  Biso   1.000  C
  C399     1.0000 0.80000  0.90000  0.53784  Biso   1.000  C
  C400     1.0000 0.90000  0.90000  0.53784  Biso   1.000  C
  C401     1.0000 0.05000  0.00000  0.57568  Biso   1.000  C
  C402     1.0000 0.15000  0.00000  0.57568  Biso   1.000  C
  C403     1.0000 0.25000  0.00000  0.57568  Biso   1.000  C
  C404     1.0000 0.35000  0.00000  0.57568  Biso   1.000  C
  C405     1.0000 0.45000  0.00000  0.57568  Biso   1.000  C
  C406     1.0000 0.55000  0.00000  0.57568  Biso   1.000  C
  C407     1.0000 0.65000  0.00000  0.57568  Biso   1.000  C
  C408     1.0000 0.75000  0.00000  0.57568  Biso   1.000  C
  C409     1.0000 0.85000  0.00000  0.57568  Biso   1.000  C
  C410     1.0000 0.95000  0.00000  0.57568  Biso   1.000  C
  C411     1.0000 0.05000  0.10000  0.57568  Biso   1.000  C
  C412     1.0000 0.15000  0.10000  0.57568  Biso   1.000  C
  C413     1.0000 0.25000  0.10000  0.57568  Biso   1.000  C
  C414     1.0000 0.35000  0.10000  0.57568  Biso   1.000  C
  C415     1.0000 0.45000  0.10000  0.57568  Biso   1.000  C
  C416     1.0000 0.55000  0.10000  0.57568  Biso   1.000  C
  C417     1.0000 0.65000  0.10000  0.57568  Biso   1.000  C
  C418     1.0000 0.75000  0.10000  0.57568  Biso   1.000  C
  C419     1.0000 0.85000  0.10000  0.57568  Biso   1.000  C
  C420     1.0000 0.95000  0.10000  0.57568  Biso   1.000  C
  C421     1.0000 0.05000  0.20000  0.57568  Biso   1.000  C
  C422     1.0000 0.15000  0.20000  0.57568  Biso   1.000  C
  C423     1.0000 0.25000  0.20000  0.57568  Biso   1.000  C
  C424     1.0000 0.35000  0.20000  0.57568  Biso   1.000  C
  C425     1.0000 0.45000  0.20000  0.57568  Biso   1.000  C
  C426     1.0000 0.55000  0.20000  0.57568  Biso   1.000  C
  C427     1.0000 0.65000  0.20000  0.57568  Biso   1.000  C
  C428     1.0000 0.75000  0.20000  0.57568  Biso   1.000  C
  C429     1.0000 0.85000  0.20000  0.57568  Biso   1.000  C
  C430     1.0000 0.95000  0.20000  0.57568  Biso   1.000  C
  C431     1.0000 0.05000  0.30000  0.57568  Biso   1.000  C
  C432     1.0000 0.15000  0.30000  0.57568  Biso   1.000  C
  C433     1.0000 0.25000  0.30000  0.57568  Biso   1.000  C
  C434     1.0000 0.35000  0.30000  0.57568  Biso   1.000  C
  C435     1.0000 0.45000  0.30000  0.57568  Biso   1.000  C
  C436     1.0000 0.55000  0.30000  0.57568  Biso   1.000  C
  C437     1.0000 0.65000  0.30000  0.57568  Biso   1.000  C
  C438     1.0000 0.75000  0.30000  0.57568  Biso   1.000  C
  C439     1.0000 0.85000  0.30000  0.57568  Biso   1.000  C
  C440     1.0000 0.95000  0.30000  0.57568  Biso   1.000  C
  C441     1.0000 0.05000  0.40000  0.57568  Biso   1.000  C
  C442     1.0000 0.15000  0.40000  0.57568  Biso   1.000  C
  C443     1.0000 0.25000  0.40000  0.57568  Biso   1.000  C
  C444     1.0000 0.35000  0.40000  0.57568  Biso   1.000  C
  C445     1.0000 0.45000  0.40000  0.57568  Biso   1.000  C
  C446     1.0000 0.55000  0.40000  0.57568  Biso   1.000  C
  C447     1.0000 0.65000  0.40000  0.57568  Biso   1.000  C
  C448     1.0000 0.75000  0.40000  0.57568  Biso   1.000  C
  C449     1.0000 0.85000  0.40000  0.57568  Biso   1.000  C
  C450     1.0000 0.95000  0.40000  0.57568  Biso   1.000  C
  C451     1.0000 0.05000  0.50000  0.57568  Biso   1.000  C
  C452     1.0000 0.15000  0.50000  0.57568  Biso   1.000  C
  C453     1.0000 0.25000  0.50000  0.57568  Biso   1.000  C
  C454     1.0000 0.35000  0.50000  0.57568  Biso   1.000  C
  C455     1.0000 0.45000  0.50000  0.57568  Biso   1.000  C
  C456     1.0000 0.55000  0.50000  0.57568  Biso   1.000  C
  C457     1.0000 0.65000  0.50000  0.57568  Biso   1.000  C
  C458     1.0000 0.75000  0.50000  0.57568  Biso   1.000  C
  C459     1.0000 0.85000  0.50000  0.57568  Biso   1.000  C
  C460     1.0000 0.95000  0.50000  0.57568  Biso   1.000  C
  C461     1.0000 0.05000  0.60000  0.57568  Biso   1.000  C
  C462     1.0000 0.15000  0.60000  0.57568  Biso   1.000  C
  C463     1.0000 0.25000  0.60000  0.57568  Biso   1.000  C
  C464     1.0000 0.35000  0.60000  0.57568  Biso   1.000  C
  C465     1.0000 0.45000  0.60000  0.57568  Biso   1.000  C
  C466     1.0000 0.55000  0.60000  0.57568  Biso   1.000  C
  C467     1.0000 0.65000  0.60000  0.57568  Biso   1.000  C
  C468     1.0000 0.75000  0.60000  0.57568  Biso   1.000  C
  C469     1.0000 0.85000  0.60000  0.57568  Biso   1.000  C
  C470     1.0000 0.95000  0.60000  0.57568  Biso   1.000  C
  C471     1.0000 0.05000  0.70000  0.57568  Biso   1.000  C
  C472     1.0000 0.15000  0.70000  0.57568  Biso   1.000  C
  C473     1.0000 0.25000  0.70000  0.57568  Biso   1.000  C
  C474     1.0000 0.35000  0.70000  0.57568  Biso   1.000  C
  C475     1.0000 0.45000  0.70000  0.57568  Biso   1.000  C
  C476     1.0000 0.55000  0.70000  0.57568  Biso   1.000  C
  C477     1.0000 0.65000  0.70000  0.57568  Biso   1.000  C
  C478     1.0000 0.75000  0.70000  0.57568  Biso   1.000  C
  C479     1.0000 0.85000  0.70000  0.57568  Biso   1.000  C
  C480     1.0000 0.95000  0.70000  0.57568  Biso   1.000  C
  C481     1.0000 0.05000  0.80000  0.57568  Biso   1.000  C
  C482     1.0000 0.15000  0.80000  0.57568  Biso   1.000  C
  C483     1.0000 0.25000  0.80000  0.57568  Biso   1.000  C
  C484     1.0000 0.35000  0.80000  0.57568  Biso   1.000  C
  C485     1.0000 0.45000  0.80000  0.57568  Biso   1.000  C
  C486     1.0000 0.55000  0.80000  0.57568  Biso   1.000  C
  C487     1.0000 0.65000  0.80000  0.57568  Biso   1.000  C
  C488     1.0000 0.75000  0.80000  0.57568  Biso   1.000  C
  C489     1.0000 0.85000  0.80000  0.57568  Biso   1.000  C
  C490     1.0000 0.95000  0.80000  0.57568  Biso   1.000  C
  C491     1.0000 0.05000  0.90000  0.57568  Biso   1.000  C
  C492     1.0000 0.15000  0.90000  0.57568  Biso   1.000  C
  C493     1.0000 0.25000  0.90000  0.57568  Biso   1.000  C
  C494     1.0000 0.35000  0.90000  0.57568  Biso   1.000  C
  C495     1.0000 0.45000  0.90000  0.57568  Biso   1.000  C
  C496     1.0000 0.55000  0.90000  0.57568  Biso   1.000  C
  C497     1.0000 0.65000  0.90000  0.57568  Biso   1.000  C
  C498     1.0000 0.75000  0.90000  0.57568  Biso   1.000  C
  C499     1.0000 0.85000  0.90000  0.57568  Biso   1.000  C
  C500     1.0000 0.95000  0.90000  0.57568  Biso   1.000  C
